pfa
pfb
pt3
t42
sfd
ttf
bdf
otf
otb
cff
cef
gai
woff
svg
ufo
pf3
ttc
gsf
cid
bin
hqx
dfont
mf
ik
fon
fnt
pcf
pmf
pdb
eot
afm
ufm
ttg
ttd
